*SPEF "ieee 1481-1999"
*DESIGN "alu_top"
*DATE "11:11:11 Fri 11 11, 1111"
*VENDOR "OpenRCX"
*PROGRAM "Parallel Extraction"
*VERSION "1.0"
*DESIGN_FLOW "NAME_SCOPE LOCAL" "PIN_CAP NONE"
*DIVIDER /
*DELIMITER :
*BUS_DELIMITER []
*T_UNIT 1 NS
*C_UNIT 1 PF
*R_UNIT 1 OHM
*L_UNIT 1 HENRY

*NAME_MAP
*3 a[0]
*4 a[1]
*5 a[2]
*6 a[3]
*7 b[0]
*8 b[1]
*9 b[2]
*10 b[3]
*11 clk
*12 result[0]
*13 result[1]
*14 result[2]
*15 result[3]
*16 result[4]
*17 rst
*18 sel[0]
*19 sel[1]
*20 sel[2]
*21 _000_
*22 _001_
*23 _002_
*24 _003_
*25 _004_
*26 _005_
*27 _006_
*28 _007_
*29 _008_
*30 _009_
*31 _010_
*32 _011_
*33 _012_
*34 _013_
*35 _014_
*36 _015_
*37 _016_
*38 _017_
*39 _018_
*40 _019_
*41 _020_
*42 _021_
*43 _022_
*44 _023_
*45 _024_
*46 _025_
*47 _026_
*48 _027_
*49 _028_
*50 _029_
*51 _030_
*52 _031_
*53 _032_
*54 _033_
*55 _034_
*56 _035_
*57 _036_
*58 _037_
*59 _038_
*60 _039_
*61 _040_
*62 _041_
*63 _042_
*64 _043_
*65 _044_
*66 _045_
*67 _046_
*68 _047_
*69 _048_
*70 _049_
*71 _050_
*72 _051_
*73 _052_
*74 _053_
*75 _054_
*76 _055_
*77 _056_
*78 _057_
*79 _058_
*80 _059_
*81 _060_
*82 clknet_0_clk
*83 clknet_1_0__leaf_clk
*84 clknet_1_1__leaf_clk
*85 net1
*86 net10
*87 net11
*88 net12
*89 net13
*90 net14
*91 net15
*92 net16
*93 net17
*94 net18
*95 net2
*96 net3
*97 net4
*98 net5
*99 net6
*100 net7
*101 net8
*102 net9
*103 FILLER_0_0_109
*104 FILLER_0_0_113
*105 FILLER_0_0_123
*106 FILLER_0_0_135
*107 FILLER_0_0_139
*108 FILLER_0_0_141
*109 FILLER_0_0_153
*110 FILLER_0_0_161
*111 FILLER_0_0_169
*112 FILLER_0_0_25
*113 FILLER_0_0_29
*114 FILLER_0_0_41
*115 FILLER_0_0_53
*116 FILLER_0_0_57
*117 FILLER_0_0_69
*118 FILLER_0_0_7
*119 FILLER_0_0_73
*120 FILLER_0_0_81
*121 FILLER_0_0_85
*122 FILLER_0_0_97
*123 FILLER_0_10_111
*124 FILLER_0_10_123
*125 FILLER_0_10_135
*126 FILLER_0_10_139
*127 FILLER_0_10_141
*128 FILLER_0_10_15
*129 FILLER_0_10_153
*130 FILLER_0_10_165
*131 FILLER_0_10_169
*132 FILLER_0_10_27
*133 FILLER_0_10_29
*134 FILLER_0_10_3
*135 FILLER_0_10_41
*136 FILLER_0_10_53
*137 FILLER_0_10_81
*138 FILLER_0_10_85
*139 FILLER_0_11_109
*140 FILLER_0_11_113
*141 FILLER_0_11_125
*142 FILLER_0_11_137
*143 FILLER_0_11_149
*144 FILLER_0_11_15
*145 FILLER_0_11_161
*146 FILLER_0_11_167
*147 FILLER_0_11_169
*148 FILLER_0_11_27
*149 FILLER_0_11_3
*150 FILLER_0_11_39
*151 FILLER_0_11_51
*152 FILLER_0_11_55
*153 FILLER_0_11_57
*154 FILLER_0_11_69
*155 FILLER_0_11_73
*156 FILLER_0_11_85
*157 FILLER_0_11_97
*158 FILLER_0_12_106
*159 FILLER_0_12_118
*160 FILLER_0_12_130
*161 FILLER_0_12_138
*162 FILLER_0_12_141
*163 FILLER_0_12_153
*164 FILLER_0_12_165
*165 FILLER_0_12_169
*166 FILLER_0_12_21
*167 FILLER_0_12_27
*168 FILLER_0_12_29
*169 FILLER_0_12_41
*170 FILLER_0_12_63
*171 FILLER_0_12_71
*172 FILLER_0_12_81
*173 FILLER_0_12_85
*174 FILLER_0_12_9
*175 FILLER_0_12_94
*176 FILLER_0_13_109
*177 FILLER_0_13_120
*178 FILLER_0_13_132
*179 FILLER_0_13_144
*180 FILLER_0_13_15
*181 FILLER_0_13_156
*182 FILLER_0_13_169
*183 FILLER_0_13_27
*184 FILLER_0_13_3
*185 FILLER_0_13_39
*186 FILLER_0_13_51
*187 FILLER_0_13_55
*188 FILLER_0_13_65
*189 FILLER_0_13_76
*190 FILLER_0_13_98
*191 FILLER_0_14_101
*192 FILLER_0_14_109
*193 FILLER_0_14_121
*194 FILLER_0_14_133
*195 FILLER_0_14_139
*196 FILLER_0_14_141
*197 FILLER_0_14_15
*198 FILLER_0_14_153
*199 FILLER_0_14_27
*200 FILLER_0_14_29
*201 FILLER_0_14_3
*202 FILLER_0_14_41
*203 FILLER_0_14_62
*204 FILLER_0_14_70
*205 FILLER_0_14_74
*206 FILLER_0_14_82
*207 FILLER_0_14_89
*208 FILLER_0_15_106
*209 FILLER_0_15_123
*210 FILLER_0_15_140
*211 FILLER_0_15_15
*212 FILLER_0_15_152
*213 FILLER_0_15_164
*214 FILLER_0_15_169
*215 FILLER_0_15_27
*216 FILLER_0_15_3
*217 FILLER_0_15_39
*218 FILLER_0_15_53
*219 FILLER_0_15_57
*220 FILLER_0_15_71
*221 FILLER_0_15_77
*222 FILLER_0_15_81
*223 FILLER_0_15_86
*224 FILLER_0_15_98
*225 FILLER_0_16_112
*226 FILLER_0_16_124
*227 FILLER_0_16_136
*228 FILLER_0_16_141
*229 FILLER_0_16_15
*230 FILLER_0_16_153
*231 FILLER_0_16_161
*232 FILLER_0_16_27
*233 FILLER_0_16_29
*234 FILLER_0_16_3
*235 FILLER_0_16_41
*236 FILLER_0_16_49
*237 FILLER_0_16_77
*238 FILLER_0_16_83
*239 FILLER_0_16_85
*240 FILLER_0_16_95
*241 FILLER_0_17_118
*242 FILLER_0_17_130
*243 FILLER_0_17_142
*244 FILLER_0_17_15
*245 FILLER_0_17_154
*246 FILLER_0_17_166
*247 FILLER_0_17_169
*248 FILLER_0_17_27
*249 FILLER_0_17_3
*250 FILLER_0_17_39
*251 FILLER_0_17_47
*252 FILLER_0_17_53
*253 FILLER_0_17_57
*254 FILLER_0_17_74
*255 FILLER_0_17_96
*256 FILLER_0_18_100
*257 FILLER_0_18_114
*258 FILLER_0_18_126
*259 FILLER_0_18_138
*260 FILLER_0_18_141
*261 FILLER_0_18_15
*262 FILLER_0_18_153
*263 FILLER_0_18_165
*264 FILLER_0_18_169
*265 FILLER_0_18_27
*266 FILLER_0_18_29
*267 FILLER_0_18_3
*268 FILLER_0_18_41
*269 FILLER_0_18_45
*270 FILLER_0_18_60
*271 FILLER_0_18_74
*272 FILLER_0_18_82
*273 FILLER_0_18_94
*274 FILLER_0_19_107
*275 FILLER_0_19_111
*276 FILLER_0_19_113
*277 FILLER_0_19_125
*278 FILLER_0_19_137
*279 FILLER_0_19_149
*280 FILLER_0_19_15
*281 FILLER_0_19_161
*282 FILLER_0_19_167
*283 FILLER_0_19_169
*284 FILLER_0_19_27
*285 FILLER_0_19_3
*286 FILLER_0_19_39
*287 FILLER_0_19_52
*288 FILLER_0_19_57
*289 FILLER_0_19_69
*290 FILLER_0_19_76
*291 FILLER_0_19_86
*292 FILLER_0_19_96
*293 FILLER_0_1_105
*294 FILLER_0_1_111
*295 FILLER_0_1_113
*296 FILLER_0_1_125
*297 FILLER_0_1_137
*298 FILLER_0_1_149
*299 FILLER_0_1_15
*300 FILLER_0_1_161
*301 FILLER_0_1_167
*302 FILLER_0_1_169
*303 FILLER_0_1_27
*304 FILLER_0_1_3
*305 FILLER_0_1_39
*306 FILLER_0_1_57
*307 FILLER_0_1_69
*308 FILLER_0_1_81
*309 FILLER_0_1_93
*310 FILLER_0_20_114
*311 FILLER_0_20_126
*312 FILLER_0_20_138
*313 FILLER_0_20_141
*314 FILLER_0_20_15
*315 FILLER_0_20_153
*316 FILLER_0_20_165
*317 FILLER_0_20_169
*318 FILLER_0_20_27
*319 FILLER_0_20_29
*320 FILLER_0_20_3
*321 FILLER_0_20_51
*322 FILLER_0_20_75
*323 FILLER_0_20_85
*324 FILLER_0_21_107
*325 FILLER_0_21_111
*326 FILLER_0_21_113
*327 FILLER_0_21_125
*328 FILLER_0_21_13
*329 FILLER_0_21_137
*330 FILLER_0_21_149
*331 FILLER_0_21_161
*332 FILLER_0_21_167
*333 FILLER_0_21_169
*334 FILLER_0_21_25
*335 FILLER_0_21_37
*336 FILLER_0_21_49
*337 FILLER_0_21_54
*338 FILLER_0_21_57
*339 FILLER_0_21_65
*340 FILLER_0_21_70
*341 FILLER_0_21_76
*342 FILLER_0_21_88
*343 FILLER_0_21_95
*344 FILLER_0_22_109
*345 FILLER_0_22_121
*346 FILLER_0_22_133
*347 FILLER_0_22_139
*348 FILLER_0_22_141
*349 FILLER_0_22_15
*350 FILLER_0_22_153
*351 FILLER_0_22_165
*352 FILLER_0_22_169
*353 FILLER_0_22_27
*354 FILLER_0_22_29
*355 FILLER_0_22_3
*356 FILLER_0_22_41
*357 FILLER_0_22_53
*358 FILLER_0_22_65
*359 FILLER_0_22_77
*360 FILLER_0_22_83
*361 FILLER_0_22_85
*362 FILLER_0_22_97
*363 FILLER_0_23_105
*364 FILLER_0_23_111
*365 FILLER_0_23_113
*366 FILLER_0_23_125
*367 FILLER_0_23_137
*368 FILLER_0_23_149
*369 FILLER_0_23_15
*370 FILLER_0_23_161
*371 FILLER_0_23_167
*372 FILLER_0_23_169
*373 FILLER_0_23_27
*374 FILLER_0_23_3
*375 FILLER_0_23_39
*376 FILLER_0_23_51
*377 FILLER_0_23_55
*378 FILLER_0_23_57
*379 FILLER_0_23_69
*380 FILLER_0_23_81
*381 FILLER_0_23_93
*382 FILLER_0_24_109
*383 FILLER_0_24_121
*384 FILLER_0_24_133
*385 FILLER_0_24_139
*386 FILLER_0_24_141
*387 FILLER_0_24_15
*388 FILLER_0_24_153
*389 FILLER_0_24_165
*390 FILLER_0_24_169
*391 FILLER_0_24_27
*392 FILLER_0_24_29
*393 FILLER_0_24_3
*394 FILLER_0_24_41
*395 FILLER_0_24_53
*396 FILLER_0_24_65
*397 FILLER_0_24_77
*398 FILLER_0_24_83
*399 FILLER_0_24_85
*400 FILLER_0_24_97
*401 FILLER_0_25_105
*402 FILLER_0_25_111
*403 FILLER_0_25_113
*404 FILLER_0_25_125
*405 FILLER_0_25_137
*406 FILLER_0_25_149
*407 FILLER_0_25_15
*408 FILLER_0_25_161
*409 FILLER_0_25_169
*410 FILLER_0_25_27
*411 FILLER_0_25_3
*412 FILLER_0_25_39
*413 FILLER_0_25_51
*414 FILLER_0_25_55
*415 FILLER_0_25_57
*416 FILLER_0_25_69
*417 FILLER_0_25_81
*418 FILLER_0_25_93
*419 FILLER_0_26_109
*420 FILLER_0_26_121
*421 FILLER_0_26_133
*422 FILLER_0_26_139
*423 FILLER_0_26_141
*424 FILLER_0_26_15
*425 FILLER_0_26_153
*426 FILLER_0_26_165
*427 FILLER_0_26_169
*428 FILLER_0_26_27
*429 FILLER_0_26_29
*430 FILLER_0_26_3
*431 FILLER_0_26_41
*432 FILLER_0_26_53
*433 FILLER_0_26_65
*434 FILLER_0_26_77
*435 FILLER_0_26_83
*436 FILLER_0_26_85
*437 FILLER_0_26_97
*438 FILLER_0_27_105
*439 FILLER_0_27_111
*440 FILLER_0_27_113
*441 FILLER_0_27_125
*442 FILLER_0_27_137
*443 FILLER_0_27_149
*444 FILLER_0_27_15
*445 FILLER_0_27_161
*446 FILLER_0_27_167
*447 FILLER_0_27_169
*448 FILLER_0_27_27
*449 FILLER_0_27_3
*450 FILLER_0_27_39
*451 FILLER_0_27_51
*452 FILLER_0_27_55
*453 FILLER_0_27_57
*454 FILLER_0_27_69
*455 FILLER_0_27_81
*456 FILLER_0_27_93
*457 FILLER_0_28_10
*458 FILLER_0_28_102
*459 FILLER_0_28_110
*460 FILLER_0_28_113
*461 FILLER_0_28_125
*462 FILLER_0_28_137
*463 FILLER_0_28_141
*464 FILLER_0_28_153
*465 FILLER_0_28_161
*466 FILLER_0_28_169
*467 FILLER_0_28_22
*468 FILLER_0_28_29
*469 FILLER_0_28_41
*470 FILLER_0_28_53
*471 FILLER_0_28_57
*472 FILLER_0_28_69
*473 FILLER_0_28_81
*474 FILLER_0_28_85
*475 FILLER_0_28_97
*476 FILLER_0_2_109
*477 FILLER_0_2_121
*478 FILLER_0_2_133
*479 FILLER_0_2_139
*480 FILLER_0_2_141
*481 FILLER_0_2_15
*482 FILLER_0_2_153
*483 FILLER_0_2_165
*484 FILLER_0_2_169
*485 FILLER_0_2_27
*486 FILLER_0_2_29
*487 FILLER_0_2_3
*488 FILLER_0_2_41
*489 FILLER_0_2_53
*490 FILLER_0_2_65
*491 FILLER_0_2_77
*492 FILLER_0_2_83
*493 FILLER_0_2_85
*494 FILLER_0_2_97
*495 FILLER_0_3_105
*496 FILLER_0_3_111
*497 FILLER_0_3_113
*498 FILLER_0_3_125
*499 FILLER_0_3_137
*500 FILLER_0_3_149
*501 FILLER_0_3_15
*502 FILLER_0_3_161
*503 FILLER_0_3_167
*504 FILLER_0_3_169
*505 FILLER_0_3_27
*506 FILLER_0_3_3
*507 FILLER_0_3_39
*508 FILLER_0_3_51
*509 FILLER_0_3_55
*510 FILLER_0_3_57
*511 FILLER_0_3_69
*512 FILLER_0_3_81
*513 FILLER_0_3_93
*514 FILLER_0_4_109
*515 FILLER_0_4_121
*516 FILLER_0_4_133
*517 FILLER_0_4_139
*518 FILLER_0_4_141
*519 FILLER_0_4_153
*520 FILLER_0_4_165
*521 FILLER_0_4_169
*522 FILLER_0_4_21
*523 FILLER_0_4_27
*524 FILLER_0_4_29
*525 FILLER_0_4_41
*526 FILLER_0_4_53
*527 FILLER_0_4_65
*528 FILLER_0_4_77
*529 FILLER_0_4_83
*530 FILLER_0_4_85
*531 FILLER_0_4_9
*532 FILLER_0_4_97
*533 FILLER_0_5_105
*534 FILLER_0_5_111
*535 FILLER_0_5_113
*536 FILLER_0_5_125
*537 FILLER_0_5_137
*538 FILLER_0_5_149
*539 FILLER_0_5_15
*540 FILLER_0_5_161
*541 FILLER_0_5_167
*542 FILLER_0_5_169
*543 FILLER_0_5_27
*544 FILLER_0_5_3
*545 FILLER_0_5_39
*546 FILLER_0_5_51
*547 FILLER_0_5_55
*548 FILLER_0_5_57
*549 FILLER_0_5_69
*550 FILLER_0_5_81
*551 FILLER_0_5_93
*552 FILLER_0_6_109
*553 FILLER_0_6_121
*554 FILLER_0_6_133
*555 FILLER_0_6_139
*556 FILLER_0_6_141
*557 FILLER_0_6_15
*558 FILLER_0_6_153
*559 FILLER_0_6_165
*560 FILLER_0_6_169
*561 FILLER_0_6_27
*562 FILLER_0_6_29
*563 FILLER_0_6_3
*564 FILLER_0_6_41
*565 FILLER_0_6_53
*566 FILLER_0_6_61
*567 FILLER_0_6_83
*568 FILLER_0_6_85
*569 FILLER_0_6_97
*570 FILLER_0_7_105
*571 FILLER_0_7_111
*572 FILLER_0_7_113
*573 FILLER_0_7_125
*574 FILLER_0_7_137
*575 FILLER_0_7_149
*576 FILLER_0_7_15
*577 FILLER_0_7_161
*578 FILLER_0_7_169
*579 FILLER_0_7_27
*580 FILLER_0_7_3
*581 FILLER_0_7_39
*582 FILLER_0_7_51
*583 FILLER_0_7_55
*584 FILLER_0_7_57
*585 FILLER_0_7_69
*586 FILLER_0_7_81
*587 FILLER_0_7_93
*588 FILLER_0_8_109
*589 FILLER_0_8_121
*590 FILLER_0_8_133
*591 FILLER_0_8_139
*592 FILLER_0_8_141
*593 FILLER_0_8_15
*594 FILLER_0_8_153
*595 FILLER_0_8_165
*596 FILLER_0_8_169
*597 FILLER_0_8_27
*598 FILLER_0_8_29
*599 FILLER_0_8_3
*600 FILLER_0_8_41
*601 FILLER_0_8_53
*602 FILLER_0_8_65
*603 FILLER_0_8_77
*604 FILLER_0_8_83
*605 FILLER_0_8_85
*606 FILLER_0_8_97
*607 FILLER_0_9_105
*608 FILLER_0_9_111
*609 FILLER_0_9_133
*610 FILLER_0_9_145
*611 FILLER_0_9_15
*612 FILLER_0_9_157
*613 FILLER_0_9_165
*614 FILLER_0_9_169
*615 FILLER_0_9_27
*616 FILLER_0_9_3
*617 FILLER_0_9_39
*618 FILLER_0_9_51
*619 FILLER_0_9_55
*620 FILLER_0_9_57
*621 FILLER_0_9_69
*622 FILLER_0_9_81
*623 FILLER_0_9_93
*624 PHY_0
*625 PHY_1
*626 PHY_10
*627 PHY_11
*628 PHY_12
*629 PHY_13
*630 PHY_14
*631 PHY_15
*632 PHY_16
*633 PHY_17
*634 PHY_18
*635 PHY_19
*636 PHY_2
*637 PHY_20
*638 PHY_21
*639 PHY_22
*640 PHY_23
*641 PHY_24
*642 PHY_25
*643 PHY_26
*644 PHY_27
*645 PHY_28
*646 PHY_29
*647 PHY_3
*648 PHY_30
*649 PHY_31
*650 PHY_32
*651 PHY_33
*652 PHY_34
*653 PHY_35
*654 PHY_36
*655 PHY_37
*656 PHY_38
*657 PHY_39
*658 PHY_4
*659 PHY_40
*660 PHY_41
*661 PHY_42
*662 PHY_43
*663 PHY_44
*664 PHY_45
*665 PHY_46
*666 PHY_47
*667 PHY_48
*668 PHY_49
*669 PHY_5
*670 PHY_50
*671 PHY_51
*672 PHY_52
*673 PHY_53
*674 PHY_54
*675 PHY_55
*676 PHY_56
*677 PHY_57
*678 PHY_6
*679 PHY_7
*680 PHY_8
*681 PHY_9
*682 TAP_100
*683 TAP_101
*684 TAP_102
*685 TAP_103
*686 TAP_104
*687 TAP_105
*688 TAP_106
*689 TAP_107
*690 TAP_108
*691 TAP_109
*692 TAP_110
*693 TAP_111
*694 TAP_112
*695 TAP_113
*696 TAP_114
*697 TAP_115
*698 TAP_116
*699 TAP_117
*700 TAP_118
*701 TAP_119
*702 TAP_120
*703 TAP_121
*704 TAP_122
*705 TAP_123
*706 TAP_124
*707 TAP_125
*708 TAP_126
*709 TAP_127
*710 TAP_128
*711 TAP_129
*712 TAP_130
*713 TAP_131
*714 TAP_132
*715 TAP_133
*716 TAP_134
*717 TAP_135
*718 TAP_136
*719 TAP_137
*720 TAP_138
*721 TAP_139
*722 TAP_140
*723 TAP_141
*724 TAP_142
*725 TAP_143
*726 TAP_144
*727 TAP_145
*728 TAP_146
*729 TAP_147
*730 TAP_148
*731 TAP_149
*732 TAP_150
*733 TAP_58
*734 TAP_59
*735 TAP_60
*736 TAP_61
*737 TAP_62
*738 TAP_63
*739 TAP_64
*740 TAP_65
*741 TAP_66
*742 TAP_67
*743 TAP_68
*744 TAP_69
*745 TAP_70
*746 TAP_71
*747 TAP_72
*748 TAP_73
*749 TAP_74
*750 TAP_75
*751 TAP_76
*752 TAP_77
*753 TAP_78
*754 TAP_79
*755 TAP_80
*756 TAP_81
*757 TAP_82
*758 TAP_83
*759 TAP_84
*760 TAP_85
*761 TAP_86
*762 TAP_87
*763 TAP_88
*764 TAP_89
*765 TAP_90
*766 TAP_91
*767 TAP_92
*768 TAP_93
*769 TAP_94
*770 TAP_95
*771 TAP_96
*772 TAP_97
*773 TAP_98
*774 TAP_99
*775 _061_
*776 _062_
*777 _063_
*778 _064_
*779 _065_
*780 _066_
*781 _067_
*782 _068_
*783 _069_
*784 _070_
*785 _071_
*786 _072_
*787 _073_
*788 _074_
*789 _075_
*790 _076_
*791 _077_
*792 _078_
*793 _079_
*794 _080_
*795 _081_
*796 _082_
*797 _083_
*798 _084_
*799 _085_
*800 _086_
*801 _087_
*802 _088_
*803 _089_
*804 _090_
*805 _091_
*806 _092_
*807 _093_
*808 _094_
*809 _095_
*810 _096_
*811 _097_
*812 _098_
*813 _099_
*814 _100_
*815 _101_
*816 _102_
*817 _103_
*818 _104_
*819 _105_
*820 _106_
*821 _107_
*822 _108_
*823 _109_
*824 _110_
*825 _111_
*826 _112_
*827 _113_
*828 _114_
*829 _115_
*830 _116_
*831 _117_
*832 _118_
*833 _119_
*834 _120_
*835 _121_
*836 _122_
*837 _123_
*838 _124_
*839 _125_
*840 _126_
*841 clkbuf_0_clk
*842 clkbuf_1_0__f_clk
*843 clkbuf_1_1__f_clk
*844 input1
*845 input10
*846 input11
*847 input12
*848 input2
*849 input3
*850 input4
*851 input5
*852 input6
*853 input7
*854 input8
*855 input9
*856 max_cap18
*857 output13
*858 output14
*859 output15
*860 output16
*861 output17

*PORTS
a[0] I
a[1] I
a[2] I
a[3] I
b[0] I
b[1] I
b[2] I
b[3] I
clk I
result[0] O
result[1] O
result[2] O
result[3] O
result[4] O
rst I
sel[0] I
sel[1] I
sel[2] I

*D_NET *3 0.00153048
*CONN
*P a[0] I
*I *844:A I *D sky130_fd_sc_hd__clkbuf_2
*CAP
1 a[0] 0.000765239
2 *844:A 0.000765239
3 *844:A *11:15 0
*RES
1 a[0] *844:A 26.9283 
*END

*D_NET *4 0.00122385
*CONN
*P a[1] I
*I *848:A I *D sky130_fd_sc_hd__clkbuf_2
*CAP
1 a[1] 0.000611923
2 *848:A 0.000611923
*RES
1 a[1] *848:A 24.4998 
*END

*D_NET *5 0.000782389
*CONN
*P a[2] I
*I *849:A I *D sky130_fd_sc_hd__buf_2
*CAP
1 a[2] 0.000391194
2 *849:A 0.000391194
*RES
1 a[2] *849:A 21.5321 
*END

*D_NET *6 0.000925563
*CONN
*P a[3] I
*I *850:A I *D sky130_fd_sc_hd__clkbuf_2
*CAP
1 a[3] 0.000462782
2 *850:A 0.000462782
*RES
1 a[3] *850:A 22.3536 
*END

*D_NET *7 0.0013236
*CONN
*P b[0] I
*I *851:A I *D sky130_fd_sc_hd__buf_2
*CAP
1 b[0] 0.000661798
2 *851:A 0.000661798
3 *851:A *846:A 0
*RES
1 b[0] *851:A 20.775 
*END

*D_NET *8 0.00085741
*CONN
*P b[1] I
*I *852:A I *D sky130_fd_sc_hd__clkbuf_2
*CAP
1 b[1] 0.000428705
2 *852:A 0.000428705
*RES
1 b[1] *852:A 21.9429 
*END

*D_NET *9 0.00186323
*CONN
*P b[2] I
*I *853:A I *D sky130_fd_sc_hd__buf_2
*CAP
1 b[2] 0.000931614
2 *853:A 0.000931614
*RES
1 b[2] *853:A 31.6929 
*END

*D_NET *10 0.00172273
*CONN
*P b[3] I
*I *854:A I *D sky130_fd_sc_hd__clkbuf_2
*CAP
1 b[3] 0.000861367
2 *854:A 0.000861367
*RES
1 b[3] *854:A 30.1571 
*END

*D_NET *11 0.005317
*CONN
*P clk I
*I *841:A I *D sky130_fd_sc_hd__clkbuf_16
*CAP
1 clk 0.00233344
2 *841:A 0
3 *11:15 0.00233344
4 *11:15 *85:12 0.000484596
5 *11:15 *88:10 0.000165517
6 *844:A *11:15 0
*RES
1 clk *11:15 43.675 
2 *11:15 *841:A 9.3 
*END

*D_NET *12 0.000702711
*CONN
*P result[0] O
*I *857:X O *D sky130_fd_sc_hd__clkbuf_4
*CAP
1 result[0] 0.000351355
2 *857:X 0.000351355
*RES
1 *857:X result[0] 20.6929 
*END

*D_NET *13 0.0010771
*CONN
*P result[1] O
*I *858:X O *D sky130_fd_sc_hd__clkbuf_4
*CAP
1 result[1] 0.00053855
2 *858:X 0.00053855
*RES
1 *858:X result[1] 24.5501 
*END

*D_NET *14 0.00104237
*CONN
*P result[2] O
*I *859:X O *D sky130_fd_sc_hd__clkbuf_4
*CAP
1 result[2] 0.000510874
2 *859:X 0.000510874
3 result[2] *859:A 2.06178e-05
*RES
1 *859:X result[2] 19.0597 
*END

*D_NET *15 0.000925515
*CONN
*P result[3] O
*I *860:X O *D sky130_fd_sc_hd__clkbuf_4
*CAP
1 result[3] 0.000462758
2 *860:X 0.000462758
*RES
1 *860:X result[3] 23.0323 
*END

*D_NET *16 0.000896439
*CONN
*P result[4] O
*I *861:X O *D sky130_fd_sc_hd__clkbuf_4
*CAP
1 result[4] 0.000441007
2 *861:X 0.000441007
3 result[4] *101:12 1.4425e-05
*RES
1 *861:X result[4] 21.4429 
*END

*D_NET *17 0.000825094
*CONN
*P rst I
*I *855:A I *D sky130_fd_sc_hd__buf_1
*CAP
1 rst 0.000412547
2 *855:A 0.000412547
*RES
1 rst *855:A 21.9607 
*END

*D_NET *18 0.000947755
*CONN
*P sel[0] I
*I *845:A I *D sky130_fd_sc_hd__dlymetal6s2s_1
*CAP
1 sel[0] 0.000473877
2 *845:A 0.000473877
*RES
1 sel[0] *845:A 19.4507 
*END

*D_NET *19 0.00119251
*CONN
*P sel[1] I
*I *846:A I *D sky130_fd_sc_hd__buf_1
*CAP
1 sel[1] 0.000541296
2 *846:A 0.000541296
3 *846:A *98:10 0.000109918
4 *851:A *846:A 0
*RES
1 sel[1] *846:A 24.6571 
*END

*D_NET *20 0.00109554
*CONN
*P sel[2] I
*I *847:A I *D sky130_fd_sc_hd__buf_1
*CAP
1 sel[2] 0.000547768
2 *847:A 0.000547768
*RES
1 sel[2] *847:A 23.3384 
*END

*D_NET *21 0.0037611
*CONN
*I *836:D I *D sky130_fd_sc_hd__dfxtp_1
*I *787:X O *D sky130_fd_sc_hd__o31a_1
*CAP
1 *836:D 7.6375e-05
2 *787:X 0.00142567
3 *21:12 0.00150204
4 *836:D *836:CLK 1.33343e-05
5 *21:12 *828:A1 0
6 *21:12 *828:B1 0
7 *21:12 *839:D 9.36295e-05
8 *21:12 *26:44 4.85966e-05
9 *21:12 *27:48 0
10 *21:12 *71:28 0
11 *21:12 *90:12 0.000601449
*RES
1 *787:X *21:12 48.9071 
2 *21:12 *836:D 10.5188 
*END

*D_NET *22 0.000717817
*CONN
*I *837:D I *D sky130_fd_sc_hd__dfxtp_1
*I *803:Y O *D sky130_fd_sc_hd__nor2_1
*CAP
1 *837:D 0.000213531
2 *803:Y 0.000213531
3 *837:D *837:CLK 0.000233051
4 *837:D *102:14 5.77037e-05
*RES
1 *803:Y *837:D 32.0687 
*END

*D_NET *23 0.00647299
*CONN
*I *838:D I *D sky130_fd_sc_hd__dfxtp_1
*I *814:X O *D sky130_fd_sc_hd__o311a_1
*CAP
1 *838:D 0.000576707
2 *814:X 0.00146664
3 *23:18 0.00204335
4 *838:D *838:CLK 0.000490822
5 *23:18 *802:A1 0.000230568
6 *23:18 *802:A2 8.27748e-05
7 *23:18 *802:B1_N 0.000132237
8 *23:18 *88:18 0.00137096
9 *23:18 *102:26 7.89362e-05
*RES
1 *814:X *23:18 48.9786 
2 *23:18 *838:D 29.0187 
*END

*D_NET *24 0.000411988
*CONN
*I *839:D I *D sky130_fd_sc_hd__dfxtp_1
*I *828:X O *D sky130_fd_sc_hd__o311a_1
*CAP
1 *839:D 0.000159179
2 *828:X 0.000159179
3 *21:12 *839:D 9.36295e-05
*RES
1 *828:X *839:D 30.8366 
*END

*D_NET *25 0.00292945
*CONN
*I *840:D I *D sky130_fd_sc_hd__dfxtp_1
*I *835:Y O *D sky130_fd_sc_hd__a21oi_1
*CAP
1 *840:D 0.00105381
2 *835:Y 0.00105381
3 *840:D *820:A 5.33005e-05
4 *840:D *830:B1 0.000141734
5 *840:D *830:C1 0.00013664
6 *840:D *833:C 0.000233494
7 *840:D *835:A1 3.14078e-05
8 *840:D *835:B1 3.31038e-05
9 *840:D *840:CLK 0.000192145
*RES
1 *835:Y *840:D 37.9795 
*END

*D_NET *26 0.0108099
*CONN
*I *833:A I *D sky130_fd_sc_hd__or4b_1
*I *795:C1 I *D sky130_fd_sc_hd__a311o_1
*I *812:A I *D sky130_fd_sc_hd__nor2_1
*I *814:A1 I *D sky130_fd_sc_hd__o311a_1
*I *828:A1 I *D sky130_fd_sc_hd__o311a_1
*I *780:A I *D sky130_fd_sc_hd__nor3b_1
*I *777:A_N I *D sky130_fd_sc_hd__and3b_1
*I *796:C I *D sky130_fd_sc_hd__and3b_1
*I *783:C I *D sky130_fd_sc_hd__and3b_1
*I *782:A I *D sky130_fd_sc_hd__and3_1
*I *775:X O *D sky130_fd_sc_hd__buf_2
*CAP
1 *833:A 0
2 *795:C1 0.000305445
3 *812:A 9.23882e-05
4 *814:A1 0
5 *828:A1 3.46332e-05
6 *780:A 8.588e-05
7 *777:A_N 4.6375e-05
8 *796:C 0.000118015
9 *783:C 0
10 *782:A 3.99619e-05
11 *775:X 0
12 *26:122 0.000495672
13 *26:113 0.000604346
14 *26:73 0.000281361
15 *26:59 0.000205966
16 *26:55 0.000310992
17 *26:44 0.000997339
18 *26:22 0.00141265
19 *26:8 0.000589679
20 *26:4 0.000416835
21 *777:A_N *777:B 3.46801e-05
22 *780:A *27:8 0
23 *780:A *86:12 0.000119618
24 *780:A *86:14 5.77092e-05
25 *795:C1 *793:B_N 0
26 *795:C1 *795:A1 6.1354e-05
27 *795:C1 *795:B1 9.11746e-05
28 *795:C1 *807:A1 6.78048e-05
29 *795:C1 *807:A2 1.84865e-05
30 *795:C1 *833:C 6.74911e-05
31 *795:C1 *42:14 0.000344925
32 *796:C *27:18 4.58194e-05
33 *796:C *27:86 0.000111329
34 *796:C *34:8 0.000183711
35 *812:A *812:B 0.000136958
36 *812:A *27:122 4.18895e-05
37 *828:A1 *71:28 3.07348e-05
38 *26:8 *814:A3 0.000223675
39 *26:8 *71:28 0.000180777
40 *26:22 *814:A2 0.000450705
41 *26:22 *814:A3 2.12005e-05
42 *26:22 *814:B1 1.56124e-05
43 *26:22 *102:26 7.7591e-05
44 *26:44 *781:C 3.40239e-05
45 *26:44 *782:C 0
46 *26:44 *785:B2 0.000128154
47 *26:44 *27:36 0.000468317
48 *26:44 *27:48 0.000348412
49 *26:55 *781:C 6.94441e-06
50 *26:55 *782:C 9.6257e-05
51 *26:59 *27:18 6.96806e-05
52 *26:73 *782:C 0.000104036
53 *26:73 *86:14 0.000138425
54 *26:113 *775:A 7.43578e-06
55 *26:113 *802:B1_N 0
56 *26:113 *814:A3 2.74737e-05
57 *26:113 *834:B1 7.80714e-06
58 *26:113 *88:33 0.000505328
59 *26:113 *97:28 6.74911e-05
60 *26:122 *27:122 0.000266479
61 *26:122 *97:20 6.42095e-05
62 *21:12 *828:A1 0
63 *21:12 *26:44 4.85966e-05
*RES
1 *775:X *26:4 9.3 
2 *26:4 *26:8 2.91071 
3 *26:8 *26:22 20.9643 
4 *26:22 *26:44 34.4286 
5 *26:44 *782:A 14.3357 
6 *26:44 *26:55 1.64286 
7 *26:55 *26:59 5.85714 
8 *26:59 *783:C 9.3 
9 *26:59 *796:C 12.3 
10 *26:55 *26:73 3.16071 
11 *26:73 *777:A_N 14.7464 
12 *26:73 *780:A 16.05 
13 *26:22 *828:A1 14.5321 
14 *26:8 *814:A1 9.3 
15 *26:4 *26:113 16.4464 
16 *26:113 *812:A 11.0679 
17 *26:113 *26:122 3.82143 
18 *26:122 *795:C1 26.0679 
19 *26:122 *833:A 9.3 
*END

*D_NET *27 0.0119856
*CONN
*I *777:B I *D sky130_fd_sc_hd__and3b_1
*I *783:A_N I *D sky130_fd_sc_hd__and3b_1
*I *833:B I *D sky130_fd_sc_hd__or4b_1
*I *795:B1 I *D sky130_fd_sc_hd__a311o_1
*I *812:B I *D sky130_fd_sc_hd__nor2_1
*I *796:B I *D sky130_fd_sc_hd__and3b_1
*I *782:B I *D sky130_fd_sc_hd__and3_1
*I *778:B1 I *D sky130_fd_sc_hd__a21oi_1
*I *828:A2 I *D sky130_fd_sc_hd__o311a_1
*I *814:A2 I *D sky130_fd_sc_hd__o311a_1
*I *776:X O *D sky130_fd_sc_hd__buf_2
*CAP
1 *777:B 0.000223892
2 *783:A_N 0
3 *833:B 0.000126964
4 *795:B1 0.00034471
5 *812:B 0.000114112
6 *796:B 3.64069e-05
7 *782:B 0
8 *778:B1 4.2634e-05
9 *828:A2 0
10 *814:A2 0.000147624
11 *776:X 0.000140415
12 *27:122 0.000536547
13 *27:109 0.000808114
14 *27:86 0.000758192
15 *27:48 0.00050671
16 *27:36 0.000630588
17 *27:30 0.000449441
18 *27:18 0.000448496
19 *27:14 0.000306876
20 *27:8 0.000535916
21 *777:B *777:C 4.83019e-06
22 *778:B1 *778:A1 1.55885e-05
23 *778:B1 *778:A2 3.57366e-05
24 *778:B1 *779:A1 2.08464e-05
25 *778:B1 *779:B2 0.000115857
26 *778:B1 *85:36 2.59355e-05
27 *795:B1 *795:A1 5.37709e-05
28 *795:B1 *802:A1 6.82922e-05
29 *795:B1 *835:A1 7.83659e-05
30 *795:B1 *42:14 0.000240803
31 *795:B1 *88:33 0
32 *795:B1 *98:36 6.38485e-05
33 *812:B *802:B1_N 9.71197e-05
34 *812:B *813:A1 0
35 *812:B *834:A2 1.58163e-05
36 *812:B *97:20 5.33005e-05
37 *814:A2 *814:A3 5.65955e-05
38 *814:A2 *828:C1 0.000104215
39 *814:A2 *37:14 2.38501e-05
40 *814:A2 *71:28 9.56563e-05
41 *833:B *42:14 2.61337e-05
42 *833:B *97:20 0.000139913
43 *833:B *98:36 1.59782e-05
44 *27:18 *796:A_N 9.41642e-05
45 *27:18 *86:33 4.37451e-05
46 *27:30 *779:B1 0.00022188
47 *27:30 *782:C 3.94968e-06
48 *27:30 *33:12 1.33343e-05
49 *27:36 *779:B1 8.69735e-05
50 *27:36 *781:C 0.000270236
51 *27:36 *782:C 3.06878e-06
52 *27:36 *98:46 7.83659e-05
53 *27:48 *779:B1 4.1331e-06
54 *27:86 *796:A_N 5.50052e-05
55 *27:109 *825:A1 0.000259563
56 *27:109 *825:A2 1.84405e-05
57 *27:109 *825:A3 0.000281347
58 *27:109 *834:B1 3.50522e-05
59 *27:109 *88:33 0.00020418
60 *27:109 *97:28 3.17148e-05
61 *27:109 *97:48 0.00015006
62 *27:109 *97:69 0.000200856
63 *27:109 *101:45 4.37451e-05
64 *27:122 *97:20 0.000310298
65 *777:A_N *777:B 3.46801e-05
66 *780:A *27:8 0
67 *795:C1 *795:B1 9.11746e-05
68 *796:C *27:18 4.58194e-05
69 *796:C *27:86 0.000111329
70 *812:A *812:B 0.000136958
71 *812:A *27:122 4.18895e-05
72 *21:12 *27:48 0
73 *26:22 *814:A2 0.000450705
74 *26:44 *27:36 0.000468317
75 *26:44 *27:48 0.000348412
76 *26:59 *27:18 6.96806e-05
77 *26:122 *27:122 0.000266479
*RES
1 *776:X *27:8 16.3536 
2 *27:8 *27:14 7.19643 
3 *27:14 *27:18 3.01786 
4 *27:18 *27:30 13.6607 
5 *27:30 *27:36 11.8393 
6 *27:36 *27:48 12.375 
7 *27:48 *814:A2 15.3357 
8 *27:48 *828:A2 9.3 
9 *27:36 *778:B1 15.6036 
10 *27:30 *782:B 9.3 
11 *27:18 *27:86 2.17857 
12 *27:86 *796:B 10.0321 
13 *27:86 *27:109 24.25 
14 *27:109 *812:B 11.9071 
15 *27:109 *27:122 7.5 
16 *27:122 *795:B1 21.8714 
17 *27:122 *833:B 15.8893 
18 *27:14 *783:A_N 9.3 
19 *27:8 *777:B 16.3893 
*END

*D_NET *28 0.00503461
*CONN
*I *825:B2 I *D sky130_fd_sc_hd__o32a_1
*I *810:B2 I *D sky130_fd_sc_hd__o32a_1
*I *799:C1 I *D sky130_fd_sc_hd__a311o_1
*I *779:B1 I *D sky130_fd_sc_hd__o22a_1
*I *777:X O *D sky130_fd_sc_hd__and3b_1
*CAP
1 *825:B2 0.000141578
2 *810:B2 8.60869e-05
3 *799:C1 7.70986e-05
4 *779:B1 0.000445504
5 *777:X 0
6 *28:29 0.000281464
7 *28:23 0.000951182
8 *28:4 0.00113683
9 *779:B1 *781:C 0.000636877
10 *779:B1 *785:B1 0
11 *779:B1 *787:A2 8.00806e-05
12 *779:B1 *801:B2 7.48356e-05
13 *779:B1 *811:A1 0
14 *779:B1 *828:B1 0
15 *779:B1 *33:12 5.80217e-05
16 *779:B1 *85:56 6.04082e-05
17 *779:B1 *98:46 7.83659e-05
18 *799:C1 *799:A1 3.08382e-06
19 *799:C1 *799:B1 7.83318e-05
20 *799:C1 *810:A1 1.33343e-05
21 *799:C1 *813:B1 5.33005e-05
22 *810:B2 *810:A1 0.000109248
23 *825:B2 *813:B1 3.6236e-05
24 *825:B2 *825:B1 9.73891e-05
25 *825:B2 *100:29 0
26 *28:23 *96:75 2.54784e-05
27 *28:29 *799:A1 0
28 *28:29 *813:B1 0.000196892
29 *28:29 *100:29 0
30 *27:30 *779:B1 0.00022188
31 *27:36 *779:B1 8.69735e-05
32 *27:48 *779:B1 4.1331e-06
*RES
1 *777:X *28:4 9.3 
2 *28:4 *779:B1 30.6214 
3 *28:4 *28:23 12.0179 
4 *28:23 *28:29 7.48214 
5 *28:29 *799:C1 11.0857 
6 *28:29 *810:B2 11.0857 
7 *28:23 *825:B2 16.3893 
*END

*D_NET *29 0.00047601
*CONN
*I *779:B2 I *D sky130_fd_sc_hd__o22a_1
*I *778:Y O *D sky130_fd_sc_hd__a21oi_1
*CAP
1 *779:B2 8.43463e-05
2 *778:Y 8.43463e-05
3 *779:B2 *778:A2 9.60875e-05
4 *779:B2 *787:A2 0
5 *779:B2 *85:36 5.25795e-05
6 *779:B2 *98:46 4.27935e-05
7 *778:B1 *779:B2 0.000115857
*RES
1 *778:Y *779:B2 21.1 
*END

*D_NET *30 0.000253999
*CONN
*I *787:A1 I *D sky130_fd_sc_hd__o31a_1
*I *779:X O *D sky130_fd_sc_hd__o22a_1
*CAP
1 *787:A1 5.46132e-05
2 *779:X 5.46132e-05
3 *787:A1 *85:32 0.000144773
*RES
1 *779:X *787:A1 19.9571 
*END

*D_NET *31 0.00250852
*CONN
*I *856:A I *D sky130_fd_sc_hd__buf_1
*I *781:C I *D sky130_fd_sc_hd__and3_1
*I *780:Y O *D sky130_fd_sc_hd__nor3b_1
*CAP
1 *856:A 0.000174493
2 *781:C 0.000381621
3 *780:Y 0
4 *31:6 0.000556114
5 *781:C *782:C 0.000107248
6 *781:C *34:23 0
7 *781:C *85:62 1.16848e-05
8 *781:C *86:12 3.92854e-05
9 *781:C *86:14 0.000100022
10 *856:A *788:C_N 5.52302e-05
11 *856:A *800:A3 0
12 *856:A *34:23 0
13 *856:A *86:10 9.24299e-05
14 *856:A *86:12 4.23086e-05
15 *856:A *87:10 0
16 *856:A *99:14 0
17 *779:B1 *781:C 0.000636877
18 *26:44 *781:C 3.40239e-05
19 *26:55 *781:C 6.94441e-06
20 *27:36 *781:C 0.000270236
*RES
1 *780:Y *31:6 13.8 
2 *31:6 *781:C 24.7464 
3 *31:6 *856:A 17.8 
*END

*D_NET *32 0.000767221
*CONN
*I *787:A2 I *D sky130_fd_sc_hd__o31a_1
*I *781:X O *D sky130_fd_sc_hd__and3_1
*CAP
1 *787:A2 0.00023444
2 *781:X 0.00023444
3 *787:A2 *85:32 0.000126639
4 *787:A2 *85:36 1.32552e-05
5 *787:A2 *85:56 7.83659e-05
6 *779:B1 *787:A2 8.00806e-05
7 *779:B2 *787:A2 0
*RES
1 *781:X *787:A2 31.6536 
*END

*D_NET *33 0.00196248
*CONN
*I *811:B1 I *D sky130_fd_sc_hd__a32o_1
*I *801:A2 I *D sky130_fd_sc_hd__a221o_1
*I *785:A2 I *D sky130_fd_sc_hd__a22o_1
*I *782:X O *D sky130_fd_sc_hd__and3_1
*CAP
1 *811:B1 0.000191619
2 *801:A2 0
3 *785:A2 0
4 *782:X 0.000175223
5 *33:23 0.000311839
6 *33:12 0.000295442
7 *811:B1 *801:B1 9.61234e-05
8 *811:B1 *811:A1 1.24142e-05
9 *811:B1 *811:A3 4.14699e-06
10 *811:B1 *811:B2 1.33464e-05
11 *811:B1 *813:A1 6.57091e-05
12 *811:B1 *828:B1 5.01064e-05
13 *811:B1 *100:10 4.13122e-06
14 *811:B1 *100:29 7.82547e-05
15 *33:12 *785:B1 3.69697e-05
16 *33:12 *801:C1 2.28335e-05
17 *33:23 *785:A1 0.000307088
18 *33:23 *787:A3 1.37831e-05
19 *33:23 *801:B1 4.38145e-05
20 *33:23 *801:B2 0.000111538
21 *33:23 *813:A1 5.32529e-05
22 *33:23 *813:A2 3.48634e-06
23 *779:B1 *33:12 5.80217e-05
24 *27:30 *33:12 1.33343e-05
*RES
1 *782:X *33:12 21.1929 
2 *33:12 *785:A2 9.3 
3 *33:12 *33:23 4.29018 
4 *33:23 *801:A2 9.3 
5 *33:23 *811:B1 22.5545 
*END

*D_NET *34 0.00760554
*CONN
*I *800:A3 I *D sky130_fd_sc_hd__o31a_1
*I *825:A3 I *D sky130_fd_sc_hd__o32a_1
*I *834:B1 I *D sky130_fd_sc_hd__a21oi_1
*I *810:A3 I *D sky130_fd_sc_hd__o32a_1
*I *785:B1 I *D sky130_fd_sc_hd__a22o_1
*I *783:X O *D sky130_fd_sc_hd__and3b_1
*CAP
1 *800:A3 5.95062e-06
2 *825:A3 9.74475e-05
3 *834:B1 0.000231257
4 *810:A3 2.2873e-05
5 *785:B1 0.000304267
6 *783:X 0.000123926
7 *34:44 0.000757924
8 *34:27 0.00120817
9 *34:23 0.00098976
10 *34:8 0.000655924
11 *785:B1 *785:A1 0.00020288
12 *785:B1 *801:C1 0.000268305
13 *800:A3 *801:C1 2.06178e-05
14 *800:A3 *99:14 1.02504e-05
15 *810:A3 *100:29 5.7903e-06
16 *825:A3 *825:A2 0.000231167
17 *825:A3 *101:45 8.17274e-05
18 *834:B1 *802:B1_N 0.000196269
19 *834:B1 *811:A3 0.000193734
20 *834:B1 *824:A1 7.80059e-05
21 *834:B1 *824:A2 2.53112e-06
22 *834:B1 *826:A2 4.02969e-05
23 *834:B1 *97:28 0.000230035
24 *834:B1 *97:48 0.000141517