*SPEF "ieee 1481-1999"
*DESIGN "alu_top"
*DATE "11:11:11 Fri 11 11, 1111"
*VENDOR "OpenRCX"
*PROGRAM "Parallel Extraction"
*VERSION "1.0"
*DESIGN_FLOW "NAME_SCOPE LOCAL" "PIN_CAP NONE"
*DIVIDER /
*DELIMITER :
*BUS_DELIMITER []
*T_UNIT 1 NS
*C_UNIT 1 PF
*R_UNIT 1 OHM
*L_UNIT 1 HENRY

*NAME_MAP
*3 a[0]
*4 a[1]
*5 a[2]
*6 a[3]
*7 b[0]
*8 b[1]
*9 b[2]
*10 b[3]
*11 clk
*12 result[0]
*13 result[1]
*14 result[2]
*15 result[3]
*16 result[4]
*17 rst
*18 sel[0]
*19 sel[1]
*20 sel[2]
*21 _000_
*22 _001_
*23 _002_
*24 _003_
*25 _004_
*26 _005_
*27 _006_
*28 _007_
*29 _008_
*30 _009_
*31 _010_
*32 _011_
*33 _012_
*34 _013_
*35 _014_
*36 _015_
*37 _016_
*38 _017_
*39 _018_
*40 _019_
*41 _020_
*42 _021_
*43 _022_
*44 _023_
*45 _024_
*46 _025_
*47 _026_
*48 _027_
*49 _028_
*50 _029_
*51 _030_
*52 _031_
*53 _032_
*54 _033_
*55 _034_
*56 _035_
*57 _036_
*58 _037_
*59 _038_
*60 _039_
*61 _040_
*62 _041_
*63 _042_
*64 _043_
*65 _044_
*66 _045_
*67 _046_
*68 _047_
*69 _048_
*70 _049_
*71 _050_
*72 _051_
*73 _052_
*74 _053_
*75 _054_
*76 _055_
*77 _056_
*78 _057_
*79 _058_
*80 _059_
*81 _060_
*82 clknet_0_clk
*83 clknet_1_0__leaf_clk
*84 clknet_1_1__leaf_clk
*85 net1
*86 net10
*87 net11
*88 net12
*89 net13
*90 net14
*91 net15
*92 net16
*93 net17
*94 net18
*95 net2
*96 net3
*97 net4
*98 net5
*99 net6
*100 net7
*101 net8
*102 net9
*103 FILLER_0_0_109
*104 FILLER_0_0_113
*105 FILLER_0_0_123
*106 FILLER_0_0_135
*107 FILLER_0_0_139
*108 FILLER_0_0_141
*109 FILLER_0_0_153
*110 FILLER_0_0_161
*111 FILLER_0_0_169
*112 FILLER_0_0_25
*113 FILLER_0_0_29
*114 FILLER_0_0_41
*115 FILLER_0_0_53
*116 FILLER_0_0_57
*117 FILLER_0_0_69
*118 FILLER_0_0_7
*119 FILLER_0_0_73
*120 FILLER_0_0_81
*121 FILLER_0_0_85
*122 FILLER_0_0_97
*123 FILLER_0_10_111
*124 FILLER_0_10_123
*125 FILLER_0_10_135
*126 FILLER_0_10_139
*127 FILLER_0_10_141
*128 FILLER_0_10_15
*129 FILLER_0_10_153
*130 FILLER_0_10_165
*131 FILLER_0_10_169
*132 FILLER_0_10_27
*133 FILLER_0_10_29
*134 FILLER_0_10_3
*135 FILLER_0_10_41
*136 FILLER_0_10_53
*137 FILLER_0_10_81
*138 FILLER_0_10_85
*139 FILLER_0_11_109
*140 FILLER_0_11_113
*141 FILLER_0_11_125
*142 FILLER_0_11_137
*143 FILLER_0_11_149
*144 FILLER_0_11_15
*145 FILLER_0_11_161
*146 FILLER_0_11_167
*147 FILLER_0_11_169
*148 FILLER_0_11_27
*149 FILLER_0_11_3
*150 FILLER_0_11_39
*151 FILLER_0_11_51
*152 FILLER_0_11_55
*153 FILLER_0_11_57
*154 FILLER_0_11_69
*155 FILLER_0_11_73
*156 FILLER_0_11_85
*157 FILLER_0_11_97
*158 FILLER_0_12_106
*159 FILLER_0_12_118
*160 FILLER_0_12_130
*161 FILLER_0_12_138
*162 FILLER_0_12_141
*163 FILLER_0_12_153
*164 FILLER_0_12_165
*165 FILLER_0_12_169
*166 FILLER_0_12_21
*167 FILLER_0_12_27
*168 FILLER_0_12_29
*169 FILLER_0_12_41
*170 FILLER_0_12_63
*171 FILLER_0_12_71
*172 FILLER_0_12_81
*173 FILLER_0_12_85
*174 FILLER_0_12_9
*175 FILLER_0_12_94
*176 FILLER_0_13_109
*177 FILLER_0_13_120
*178 FILLER_0_13_132
*179 FILLER_0_13_144
*180 FILLER_0_13_15
*181 FILLER_0_13_156
*182 FILLER_0_13_169
*183 FILLER_0_13_27
*184 FILLER_0_13_3
*185 FILLER_0_13_39
*186 FILLER_0_13_51
*187 FILLER_0_13_55
*188 FILLER_0_13_65
*189 FILLER_0_13_76
*190 FILLER_0_13_98
*191 FILLER_0_14_101
*192 FILLER_0_14_109
*193 FILLER_0_14_121
*194 FILLER_0_14_133
*195 FILLER_0_14_139
*196 FILLER_0_14_141
*197 FILLER_0_14_15
*198 FILLER_0_14_153
*199 FILLER_0_14_27
*200 FILLER_0_14_29
*201 FILLER_0_14_3
*202 FILLER_0_14_41
*203 FILLER_0_14_62
*204 FILLER_0_14_70
*205 FILLER_0_14_74
*206 FILLER_0_14_82
*207 FILLER_0_14_89
*208 FILLER_0_15_106
*209 FILLER_0_15_123
*210 FILLER_0_15_140
*211 FILLER_0_15_15
*212 FILLER_0_15_152
*213 FILLER_0_15_164
*214 FILLER_0_15_169
*215 FILLER_0_15_27
*216 FILLER_0_15_3
*217 FILLER_0_15_39
*218 FILLER_0_15_53
*219 FILLER_0_15_57
*220 FILLER_0_15_71
*221 FILLER_0_15_77
*222 FILLER_0_15_81
*223 FILLER_0_15_86
*224 FILLER_0_15_98
*225 FILLER_0_16_112
*226 FILLER_0_16_124
*227 FILLER_0_16_136
*228 FILLER_0_16_141
*229 FILLER_0_16_15
*230 FILLER_0_16_153
*231 FILLER_0_16_161
*232 FILLER_0_16_27
*233 FILLER_0_16_29
*234 FILLER_0_16_3
*235 FILLER_0_16_41
*236 FILLER_0_16_49
*237 FILLER_0_16_77
*238 FILLER_0_16_83
*239 FILLER_0_16_85
*240 FILLER_0_16_95
*241 FILLER_0_17_118
*242 FILLER_0_17_130
*243 FILLER_0_17_142
*244 FILLER_0_17_15
*245 FILLER_0_17_154
*246 FILLER_0_17_166
*247 FILLER_0_17_169
*248 FILLER_0_17_27
*249 FILLER_0_17_3
*250 FILLER_0_17_39
*251 FILLER_0_17_47
*252 FILLER_0_17_53
*253 FILLER_0_17_57
*254 FILLER_0_17_74
*255 FILLER_0_17_96
*256 FILLER_0_18_100
*257 FILLER_0_18_114
*258 FILLER_0_18_126
*259 FILLER_0_18_138
*260 FILLER_0_18_141
*261 FILLER_0_18_15
*262 FILLER_0_18_153
*263 FILLER_0_18_165
*264 FILLER_0_18_169
*265 FILLER_0_18_27
*266 FILLER_0_18_29
*267 FILLER_0_18_3
*268 FILLER_0_18_41
*269 FILLER_0_18_45
*270 FILLER_0_18_60
*271 FILLER_0_18_74
*272 FILLER_0_18_82
*273 FILLER_0_18_94
*274 FILLER_0_19_107
*275 FILLER_0_19_111
*276 FILLER_0_19_113
*277 FILLER_0_19_125
*278 FILLER_0_19_137
*279 FILLER_0_19_149
*280 FILLER_0_19_15
*281 FILLER_0_19_161
*282 FILLER_0_19_167
*283 FILLER_0_19_169
*284 FILLER_0_19_27
*285 FILLER_0_19_3
*286 FILLER_0_19_39
*287 FILLER_0_19_52
*288 FILLER_0_19_57
*289 FILLER_0_19_69
*290 FILLER_0_19_76
*291 FILLER_0_19_86
*292 FILLER_0_19_96
*293 FILLER_0_1_105
*294 FILLER_0_1_111
*295 FILLER_0_1_113
*296 FILLER_0_1_125
*297 FILLER_0_1_137
*298 FILLER_0_1_149
*299 FILLER_0_1_15
*300 FILLER_0_1_161
*301 FILLER_0_1_167
*302 FILLER_0_1_169
*303 FILLER_0_1_27
*304 FILLER_0_1_3
*305 FILLER_0_1_39
*306 FILLER_0_1_57
*307 FILLER_0_1_69
*308 FILLER_0_1_81
*309 FILLER_0_1_93
*310 FILLER_0_20_114
*311 FILLER_0_20_126
*312 FILLER_0_20_138
*313 FILLER_0_20_141
*314 FILLER_0_20_15
*315 FILLER_0_20_153
*316 FILLER_0_20_165
*317 FILLER_0_20_169
*318 FILLER_0_20_27
*319 FILLER_0_20_29
*320 FILLER_0_20_3
*321 FILLER_0_20_51
*322 FILLER_0_20_75
*323 FILLER_0_20_85
*324 FILLER_0_21_107
*325 FILLER_0_21_111
*326 FILLER_0_21_113
*327 FILLER_0_21_125
*328 FILLER_0_21_13
*329 FILLER_0_21_137
*330 FILLER_0_21_149
*331 FILLER_0_21_161
*332 FILLER_0_21_167
*333 FILLER_0_21_169
*334 FILLER_0_21_25
*335 FILLER_0_21_37
*336 FILLER_0_21_49
*337 FILLER_0_21_54
*338 FILLER_0_21_57
*339 FILLER_0_21_65
*340 FILLER_0_21_70
*341 FILLER_0_21_76
*342 FILLER_0_21_88
*343 FILLER_0_21_95
*344 FILLER_0_22_109
*345 FILLER_0_22_121
*346 FILLER_0_22_133
*347 FILLER_0_22_139
*348 FILLER_0_22_141
*349 FILLER_0_22_15
*350 FILLER_0_22_153
*351 FILLER_0_22_165
*352 FILLER_0_22_169
*353 FILLER_0_22_27
*354 FILLER_0_22_29
*355 FILLER_0_22_3
*356 FILLER_0_22_41
*357 FILLER_0_22_53
*358 FILLER_0_22_65
*359 FILLER_0_22_77
*360 FILLER_0_22_83
*361 FILLER_0_22_85
*362 FILLER_0_22_97
*363 FILLER_0_23_105
*364 FILLER_0_23_111
*365 FILLER_0_23_113
*366 FILLER_0_23_125
*367 FILLER_0_23_137
*368 FILLER_0_23_149
*369 FILLER_0_23_15
*370 FILLER_0_23_161
*371 FILLER_0_23_167
*372 FILLER_0_23_169
*373 FILLER_0_23_27
*374 FILLER_0_23_3
*375 FILLER_0_23_39
*376 FILLER_0_23_51
*377 FILLER_0_23_55
*378 FILLER_0_23_57
*379 FILLER_0_23_69
*380 FILLER_0_23_81
*381 FILLER_0_23_93
*382 FILLER_0_24_109
*383 FILLER_0_24_121
*384 FILLER_0_24_133
*385 FILLER_0_24_139
*386 FILLER_0_24_141
*387 FILLER_0_24_15
*388 FILLER_0_24_153
*389 FILLER_0_24_165
*390 FILLER_0_24_169
*391 FILLER_0_24_27
*392 FILLER_0_24_29
*393 FILLER_0_24_3
*394 FILLER_0_24_41
*395 FILLER_0_24_53
*396 FILLER_0_24_65
*397 FILLER_0_24_77
*398 FILLER_0_24_83
*399 FILLER_0_24_85
*400 FILLER_0_24_97
*401 FILLER_0_25_105
*402 FILLER_0_25_111
*403 FILLER_0_25_113
*404 FILLER_0_25_125
*405 FILLER_0_25_137
*406 FILLER_0_25_149
*407 FILLER_0_25_15
*408 FILLER_0_25_161
*409 FILLER_0_25_169
*410 FILLER_0_25_27
*411 FILLER_0_25_3
*412 FILLER_0_25_39
*413 FILLER_0_25_51
*414 FILLER_0_25_55
*415 FILLER_0_25_57
*416 FILLER_0_25_69
*417 FILLER_0_25_81
*418 FILLER_0_25_93
*419 FILLER_0_26_109
*420 FILLER_0_26_121
*421 FILLER_0_26_133
*422 FILLER_0_26_139
*423 FILLER_0_26_141
*424 FILLER_0_26_15
*425 FILLER_0_26_153
*426 FILLER_0_26_165
*427 FILLER_0_26_169
*428 FILLER_0_26_27
*429 FILLER_0_26_29
*430 FILLER_0_26_3
*431 FILLER_0_26_41
*432 FILLER_0_26_53
*433 FILLER_0_26_65
*434 FILLER_0_26_77
*435 FILLER_0_26_83
*436 FILLER_0_26_85
*437 FILLER_0_26_97
*438 FILLER_0_27_105
*439 FILLER_0_27_111
*440 FILLER_0_27_113
*441 FILLER_0_27_125
*442 FILLER_0_27_137
*443 FILLER_0_27_149
*444 FILLER_0_27_15
*445 FILLER_0_27_161
*446 FILLER_0_27_167
*447 FILLER_0_27_169
*448 FILLER_0_27_27
*449 FILLER_0_27_3
*450 FILLER_0_27_39
*451 FILLER_0_27_51
*452 FILLER_0_27_55
*453 FILLER_0_27_57
*454 FILLER_0_27_69
*455 FILLER_0_27_81
*456 FILLER_0_27_93
*457 FILLER_0_28_10
*458 FILLER_0_28_102
*459 FILLER_0_28_110
*460 FILLER_0_28_113
*461 FILLER_0_28_125
*462 FILLER_0_28_137
*463 FILLER_0_28_141
*464 FILLER_0_28_153
*465 FILLER_0_28_161
*466 FILLER_0_28_169
*467 FILLER_0_28_22
*468 FILLER_0_28_29
*469 FILLER_0_28_41
*470 FILLER_0_28_53
*471 FILLER_0_28_57
*472 FILLER_0_28_69
*473 FILLER_0_28_81
*474 FILLER_0_28_85
*475 FILLER_0_28_97
*476 FILLER_0_2_109
*477 FILLER_0_2_121
*478 FILLER_0_2_133
*479 FILLER_0_2_139
*480 FILLER_0_2_141
*481 FILLER_0_2_15
*482 FILLER_0_2_153
*483 FILLER_0_2_165
*484 FILLER_0_2_169
*485 FILLER_0_2_27
*486 FILLER_0_2_29
*487 FILLER_0_2_3
*488 FILLER_0_2_41
*489 FILLER_0_2_53
*490 FILLER_0_2_65
*491 FILLER_0_2_77
*492 FILLER_0_2_83
*493 FILLER_0_2_85
*494 FILLER_0_2_97
*495 FILLER_0_3_105
*496 FILLER_0_3_111
*497 FILLER_0_3_113
*498 FILLER_0_3_125
*499 FILLER_0_3_137
*500 FILLER_0_3_149
*501 FILLER_0_3_15
*502 FILLER_0_3_161
*503 FILLER_0_3_167
*504 FILLER_0_3_169
*505 FILLER_0_3_27
*506 FILLER_0_3_3
*507 FILLER_0_3_39
*508 FILLER_0_3_51
*509 FILLER_0_3_55
*510 FILLER_0_3_57
*511 FILLER_0_3_69
*512 FILLER_0_3_81
*513 FILLER_0_3_93
*514 FILLER_0_4_109
*515 FILLER_0_4_121
*516 FILLER_0_4_133
*517 FILLER_0_4_139
*518 FILLER_0_4_141
*519 FILLER_0_4_153
*520 FILLER_0_4_165
*521 FILLER_0_4_169
*522 FILLER_0_4_21
*523 FILLER_0_4_27
*524 FILLER_0_4_29
*525 FILLER_0_4_41
*526 FILLER_0_4_53
*527 FILLER_0_4_65
*528 FILLER_0_4_77
*529 FILLER_0_4_83
*530 FILLER_0_4_85
*531 FILLER_0_4_9
*532 FILLER_0_4_97
*533 FILLER_0_5_105
*534 FILLER_0_5_111
*535 FILLER_0_5_113
*536 FILLER_0_5_125
*537 FILLER_0_5_137
*538 FILLER_0_5_149
*539 FILLER_0_5_15
*540 FILLER_0_5_161
*541 FILLER_0_5_167
*542 FILLER_0_5_169
*543 FILLER_0_5_27
*544 FILLER_0_5_3
*545 FILLER_0_5_39
*546 FILLER_0_5_51
*547 FILLER_0_5_55
*548 FILLER_0_5_57
*549 FILLER_0_5_69
*550 FILLER_0_5_81
*551 FILLER_0_5_93
*552 FILLER_0_6_109
*553 FILLER_0_6_121
*554 FILLER_0_6_133
*555 FILLER_0_6_139
*556 FILLER_0_6_141
*557 FILLER_0_6_15
*558 FILLER_0_6_153
*559 FILLER_0_6_165
*560 FILLER_0_6_169
*561 FILLER_0_6_27
*562 FILLER_0_6_29
*563 FILLER_0_6_3
*564 FILLER_0_6_41
*565 FILLER_0_6_53
*566 FILLER_0_6_61
*567 FILLER_0_6_83
*568 FILLER_0_6_85
*569 FILLER_0_6_97
*570 FILLER_0_7_105
*571 FILLER_0_7_111
*572 FILLER_0_7_113
*573 FILLER_0_7_125
*574 FILLER_0_7_137
*575 FILLER_0_7_149
*576 FILLER_0_7_15
*577 FILLER_0_7_161
*578 FILLER_0_7_169
*579 FILLER_0_7_27
*580 FILLER_0_7_3
*581 FILLER_0_7_39
*582 FILLER_0_7_51
*583 FILLER_0_7_55
*584 FILLER_0_7_57
*585 FILLER_0_7_69
*586 FILLER_0_7_81
*587 FILLER_0_7_93
*588 FILLER_0_8_109
*589 FILLER_0_8_121
*590 FILLER_0_8_133
*591 FILLER_0_8_139
*592 FILLER_0_8_141
*593 FILLER_0_8_15
*594 FILLER_0_8_153
*595 FILLER_0_8_165
*596 FILLER_0_8_169
*597 FILLER_0_8_27
*598 FILLER_0_8_29
*599 FILLER_0_8_3
*600 FILLER_0_8_41
*601 FILLER_0_8_53
*602 FILLER_0_8_65
*603 FILLER_0_8_77
*604 FILLER_0_8_83
*605 FILLER_0_8_85
*606 FILLER_0_8_97
*607 FILLER_0_9_105
*608 FILLER_0_9_111
*609 FILLER_0_9_133
*610 FILLER_0_9_145
*611 FILLER_0_9_15
*612 FILLER_0_9_157
*613 FILLER_0_9_165
*614 FILLER_0_9_169
*615 FILLER_0_9_27
*616 FILLER_0_9_3
*617 FILLER_0_9_39
*618 FILLER_0_9_51
*619 FILLER_0_9_55
*620 FILLER_0_9_57
*621 FILLER_0_9_69
*622 FILLER_0_9_81
*623 FILLER_0_9_93
*624 PHY_0
*625 PHY_1
*626 PHY_10
*627 PHY_11
*628 PHY_12
*629 PHY_13
*630 PHY_14
*631 PHY_15
*632 PHY_16
*633 PHY_17
*634 PHY_18
*635 PHY_19
*636 PHY_2
*637 PHY_20
*638 PHY_21
*639 PHY_22
*640 PHY_23
*641 PHY_24
*642 PHY_25
*643 PHY_26
*644 PHY_27
*645 PHY_28
*646 PHY_29
*647 PHY_3
*648 PHY_30
*649 PHY_31
*650 PHY_32
*651 PHY_33
*652 PHY_34
*653 PHY_35
*654 PHY_36
*655 PHY_37
*656 PHY_38
*657 PHY_39
*658 PHY_4
*659 PHY_40
*660 PHY_41
*661 PHY_42
*662 PHY_43
*663 PHY_44
*664 PHY_45
*665 PHY_46
*666 PHY_47
*667 PHY_48
*668 PHY_49
*669 PHY_5
*670 PHY_50
*671 PHY_51
*672 PHY_52
*673 PHY_53
*674 PHY_54
*675 PHY_55
*676 PHY_56
*677 PHY_57
*678 PHY_6
*679 PHY_7
*680 PHY_8
*681 PHY_9
*682 TAP_100
*683 TAP_101
*684 TAP_102
*685 TAP_103
*686 TAP_104
*687 TAP_105
*688 TAP_106
*689 TAP_107
*690 TAP_108
*691 TAP_109
*692 TAP_110
*693 TAP_111
*694 TAP_112
*695 TAP_113
*696 TAP_114
*697 TAP_115
*698 TAP_116
*699 TAP_117
*700 TAP_118
*701 TAP_119
*702 TAP_120
*703 TAP_121
*704 TAP_122
*705 TAP_123
*706 TAP_124
*707 TAP_125
*708 TAP_126
*709 TAP_127
*710 TAP_128
*711 TAP_129
*712 TAP_130
*713 TAP_131
*714 TAP_132
*715 TAP_133
*716 TAP_134
*717 TAP_135
*718 TAP_136
*719 TAP_137
*720 TAP_138
*721 TAP_139
*722 TAP_140
*723 TAP_141
*724 TAP_142
*725 TAP_143
*726 TAP_144
*727 TAP_145
*728 TAP_146
*729 TAP_147
*730 TAP_148
*731 TAP_149
*732 TAP_150
*733 TAP_58
*734 TAP_59
*735 TAP_60
*736 TAP_61
*737 TAP_62
*738 TAP_63
*739 TAP_64
*740 TAP_65
*741 TAP_66
*742 TAP_67
*743 TAP_68
*744 TAP_69
*745 TAP_70
*746 TAP_71
*747 TAP_72
*748 TAP_73
*749 TAP_74
*750 TAP_75
*751 TAP_76
*752 TAP_77
*753 TAP_78
*754 TAP_79
*755 TAP_80
*756 TAP_81
*757 TAP_82
*758 TAP_83
*759 TAP_84
*760 TAP_85
*761 TAP_86
*762 TAP_87
*763 TAP_88
*764 TAP_89
*765 TAP_90
*766 TAP_91
*767 TAP_92
*768 TAP_93
*769 TAP_94
*770 TAP_95
*771 TAP_96
*772 TAP_97
*773 TAP_98
*774 TAP_99
*775 _061_
*776 _062_
*777 _063_
*778 _064_
*779 _065_
*780 _066_
*781 _067_
*782 _068_
*783 _069_
*784 _070_
*785 _071_
*786 _072_
*787 _073_
*788 _074_
*789 _075_
*790 _076_
*791 _077_
*792 _078_
*793 _079_
*794 _080_
*795 _081_
*796 _082_
*797 _083_
*798 _084_
*799 _085_
*800 _086_
*801 _087_
*802 _088_
*803 _089_
*804 _090_
*805 _091_
*806 _092_
*807 _093_
*808 _094_
*809 _095_
*810 _096_
*811 _097_
*812 _098_
*813 _099_
*814 _100_
*815 _101_
*816 _102_
*817 _103_
*818 _104_
*819 _105_
*820 _106_
*821 _107_
*822 _108_
*823 _109_
*824 _110_
*825 _111_
*826 _112_
*827 _113_
*828 _114_
*829 _115_
*830 _116_
*831 _117_
*832 _118_
*833 _119_
*834 _120_
*835 _121_
*836 _122_
*837 _123_
*838 _124_
*839 _125_
*840 _126_
*841 clkbuf_0_clk
*842 clkbuf_1_0__f_clk
*843 clkbuf_1_1__f_clk
*844 input1
*845 input10
*846 input11
*847 input12
*848 input2
*849 input3
*850 input4
*851 input5
*852 input6
*853 input7
*854 input8
*855 input9
*856 max_cap18
*857 output13
*858 output14
*859 output15
*860 output16
*861 output17

*PORTS
a[0] I
a[1] I
a[2] I
a[3] I
b[0] I
b[1] I
b[2] I
b[3] I
clk I
result[0] O
result[1] O
result[2] O
result[3] O
result[4] O
rst I
sel[0] I
sel[1] I
sel[2] I

*D_NET *3 0.00162423
*CONN
*P a[0] I
*I *844:A I *D sky130_fd_sc_hd__clkbuf_2
*CAP
1 a[0] 0.000812114
2 *844:A 0
3 *3:13 0.000812114
4 *3:13 *11:9 0
*RES
1 a[0] *3:13 34.3001 
2 *3:13 *844:A 23 
*END

*D_NET *4 0.00128586
*CONN
*P a[1] I
*I *848:A I *D sky130_fd_sc_hd__clkbuf_2
*CAP
1 a[1] 0.000642928
2 *848:A 0
3 *4:13 0.000642928
*RES
1 a[1] *4:13 31.483 
2 *4:13 *848:A 23 
*END

*D_NET *5 0.000826159
*CONN
*P a[2] I
*I *849:A I *D sky130_fd_sc_hd__buf_2
*CAP
1 a[2] 0.000413079
2 *849:A 0.000413079
*RES
1 a[2] *849:A 46.9693 
*END

*D_NET *6 0.00098671
*CONN
*P a[3] I
*I *850:A I *D sky130_fd_sc_hd__clkbuf_2
*CAP
1 a[3] 0.000493355
2 *850:A 0.000493355
*RES
1 a[3] *850:A 47.9221 
*END

*D_NET *7 0.00141008
*CONN
*P b[0] I
*I *851:A I *D sky130_fd_sc_hd__buf_2
*CAP
1 b[0] 0.000705041
2 *851:A 0
3 *7:15 0.000705041
4 *7:15 *19:13 0
*RES
1 b[0] *7:15 27.1911 
2 *7:15 *851:A 23 
*END

*D_NET *8 0.000913391
*CONN
*P b[1] I
*I *852:A I *D sky130_fd_sc_hd__clkbuf_2
*CAP
1 b[1] 0.000456696
2 *852:A 0.000456696
*RES
1 b[1] *852:A 47.4457 
*END

*D_NET *9 0.00195779
*CONN
*P b[2] I
*I *853:A I *D sky130_fd_sc_hd__buf_2
*CAP
1 b[2] 0.000978895
2 *853:A 0
3 *9:9 0.000978895
*RES
1 b[2] *9:9 35.7557 
2 *9:9 *853:A 23 
*END

*D_NET *10 0.00181078
*CONN
*P b[3] I
*I *854:A I *D sky130_fd_sc_hd__clkbuf_2
*CAP
1 b[3] 0.000905389
2 *854:A 0
3 *10:9 0.000905389
*RES
1 b[3] *10:9 33.9743 
2 *10:9 *854:A 23 
*END

*D_NET *11 0.0058259
*CONN
*P clk I
*I *841:A I *D sky130_fd_sc_hd__clkbuf_16
*CAP
1 clk 0.00255281
2 *841:A 3.6322e-05
3 *11:9 0.00258914
4 *11:9 *85:12 0.00047493
5 *11:9 *88:10 0.000172699
6 *3:13 *11:9 0
*RES
1 clk *11:9 44.9395 
2 *11:9 *841:A 46.6732 
*END

*D_NET *12 0.000742482
*CONN
*P result[0] O
*I *857:X O *D sky130_fd_sc_hd__clkbuf_4
*CAP
1 result[0] 0.000371241
2 *857:X 0.000371241
*RES
1 *857:X result[0] 45.9957 
*END

*D_NET *13 0.00114423
*CONN
*P result[1] O
*I *858:X O *D sky130_fd_sc_hd__clkbuf_4
*CAP
1 result[1] 0.000164703
2 *858:X 0.00040741
3 *13:10 0.000572113
*RES
1 *858:X *13:10 45.9439 
2 *13:10 result[1] 8.58613 
*END

*D_NET *14 0.00110437
*CONN
*P result[2] O
*I *859:X O *D sky130_fd_sc_hd__clkbuf_4
*CAP
1 result[2] 0.000540862
2 *859:X 0.000540862
3 result[2] *91:10 2.26497e-05
*RES
1 *859:X result[2] 48.1952 
*END

*D_NET *15 0.000985715
*CONN
*P result[3] O
*I *860:X O *D sky130_fd_sc_hd__clkbuf_4
*CAP
1 result[3] 0.000164703
2 *860:X 0.000328155
3 *15:10 0.000492858
*RES
1 *860:X *15:10 44.1832 
2 *15:10 result[3] 8.58613 
*END

*D_NET *16 0.000954151
*CONN
*P result[4] O
*I *861:X O *D sky130_fd_sc_hd__clkbuf_4
*CAP
1 result[4] 0.000470079
2 *861:X 0.000470079
3 result[4] *101:10 1.39929e-05
*RES
1 *861:X result[4] 46.8657 
*END

*D_NET *17 0.000870199
*CONN
*P rst I
*I *855:A I *D sky130_fd_sc_hd__buf_1
*CAP
1 rst 0.000435099
2 *855:A 0.000435099
*RES
1 rst *855:A 47.4664 
*END

*D_NET *18 0.00100169
*CONN
*P sel[0] I
*I *845:A I *D sky130_fd_sc_hd__dlymetal6s2s_1
*CAP
1 sel[0] 0.000500845
2 *845:A 0.000500845
*RES
1 sel[0] *845:A 48.6419 
*END

*D_NET *19 0.00126121
*CONN
*P sel[1] I
*I *846:A I *D sky130_fd_sc_hd__buf_1
*CAP
1 sel[1] 0.000574953
2 *846:A 0
3 *19:13 0.000574953
4 *19:13 *98:8 0.000111308
5 *7:15 *19:13 0
*RES
1 sel[1] *19:13 27.5943 
2 *19:13 *846:A 23 
*END

*D_NET *20 0.00116021
*CONN
*P sel[2] I
*I *847:A I *D sky130_fd_sc_hd__buf_1
*CAP
1 sel[2] 0.000580106
2 *847:A 0
3 *20:15 0.000580106
*RES
1 sel[2] *20:15 30.1335 
2 *20:15 *847:A 23 
*END

*D_NET *21 0.00409591
*CONN
*I *836:D I *D sky130_fd_sc_hd__dfxtp_1
*I *787:X O *D sky130_fd_sc_hd__o31a_1
*CAP
1 *836:D 0.000102939
2 *787:X 0
3 *21:8 0.00165424
4 *21:6 0.0015513
5 *836:D *83:12 1.32314e-05
6 *21:8 *828:A1 0
7 *21:8 *828:A3 0
8 *21:8 *24:8 9.70579e-05
9 *21:8 *26:34 5.05203e-05
10 *21:8 *27:48 0
11 *21:8 *75:10 0
12 *21:8 *90:12 0.000626626
*RES
1 *787:X *21:6 38 
2 *21:6 *21:8 35.0071 
3 *21:8 *836:D 39.9109 
*END

*D_NET *22 0.000777116
*CONN
*I *837:D I *D sky130_fd_sc_hd__dfxtp_1
*I *803:Y O *D sky130_fd_sc_hd__nor2_1
*CAP
1 *837:D 0.000118227
2 *803:Y 0.000123682
3 *22:8 0.00024191
4 *837:D *837:CLK 0.000238659
5 *22:8 *102:14 5.46387e-05
*RES
1 *803:Y *22:8 40.61 
2 *22:8 *837:D 40.5737 
*END

*D_NET *23 0.0069558
*CONN
*I *838:D I *D sky130_fd_sc_hd__dfxtp_1
*I *814:X O *D sky130_fd_sc_hd__o311a_1
*CAP
1 *838:D 0
2 *814:X 4.19191e-05
3 *23:26 0.00063018
4 *23:18 0.00219335
5 *23:8 0.00160509
6 *23:8 *51:14 8.78864e-05
7 *23:8 *102:26 8.78864e-05
8 *23:18 *802:A1 0.000237027
9 *23:18 *802:A2 8.86967e-05
10 *23:18 *51:14 5.3304e-05
11 *23:18 *88:12 0.00143496
12 *23:26 *84:12 0.000495504
*RES
1 *814:X *23:8 39.2014 
2 *23:8 *23:18 49.3857 
3 *23:18 *23:26 42.4338 
4 *23:26 *838:D 23 
*END

*D_NET *24 0.000447268
*CONN
*I *839:D I *D sky130_fd_sc_hd__dfxtp_1
*I *828:X O *D sky130_fd_sc_hd__o311a_1
*CAP
1 *839:D 7.07813e-05
2 *828:X 0.000104324
3 *24:8 0.000175105
4 *21:8 *24:8 9.70579e-05
*RES
1 *828:X *24:8 40.61 
2 *24:8 *839:D 39.1445 
*END

*D_NET *25 0.0031737
*CONN
*I *840:D I *D sky130_fd_sc_hd__dfxtp_1
*I *835:Y O *D sky130_fd_sc_hd__a21oi_1
*CAP
1 *840:D 0
2 *835:Y 0.00117127
3 *25:16 0.00117127
4 *25:16 *820:A 5.3304e-05
5 *25:16 *830:B1 0.000144501
6 *25:16 *830:C1 0.000135414
7 *25:16 *835:A1 3.17516e-05
8 *25:16 *835:B1 3.34831e-05
9 *25:16 *840:CLK 0.000196508
10 *25:16 *78:18 0.000236202
*RES
1 *835:Y *25:16 45.4802 
2 *25:16 *840:D 23 
*END

*D_NET *26 0.0120676
*CONN
*I *833:A I *D sky130_fd_sc_hd__or4b_1
*I *795:C1 I *D sky130_fd_sc_hd__a311o_1
*I *812:A I *D sky130_fd_sc_hd__nor2_1
*I *814:A1 I *D sky130_fd_sc_hd__o311a_1
*I *828:A1 I *D sky130_fd_sc_hd__o311a_1
*I *780:A I *D sky130_fd_sc_hd__nor3b_1
*I *777:A_N I *D sky130_fd_sc_hd__and3b_1
*I *796:C I *D sky130_fd_sc_hd__and3b_1
*I *783:C I *D sky130_fd_sc_hd__and3b_1
*I *782:A I *D sky130_fd_sc_hd__and3_1
*I *775:X O *D sky130_fd_sc_hd__buf_2
*CAP
1 *833:A 0
2 *795:C1 0
3 *812:A 0.000112405
4 *814:A1 0
5 *828:A1 3.89335e-05
6 *780:A 9.81777e-05
7 *777:A_N 5.25744e-05
8 *796:C 0.000145567
9 *783:C 0
10 *782:A 4.52148e-05
11 *775:X 0
12 *26:132 0.000370588
13 *26:122 0.000598235
14 *26:113 0.000713791
15 *26:73 0.000324899
16 *26:59 0.000252302
17 *26:55 0.000368593
18 *26:44 0.000914337
19 *26:34 0.00103101
20 *26:22 0.000327725
21 *26:18 0.000535342
22 *26:8 0.00060774
23 *26:4 0.000485328
24 *777:A_N *777:B 3.46216e-05
25 *780:A *27:8 0
26 *780:A *86:12 0.000132665
27 *780:A *86:14 6.44894e-05
28 *796:C *27:18 4.67488e-05
29 *796:C *27:86 0.000115619
30 *796:C *34:8 0.000187363
31 *812:A *812:B 0.000136743
32 *812:A *27:122 4.17736e-05
33 *828:A1 *828:A3 3.19436e-05
34 *26:8 *57:10 0.000226907
35 *26:8 *71:24 0.000180224
36 *26:18 *814:A2 0.000462344
37 *26:18 *814:B1 1.50387e-05
38 *26:18 *57:10 2.1819e-05
39 *26:18 *102:26 8.58779e-05
40 *26:34 *27:48 0.000129582
41 *26:44 *782:C 0
42 *26:44 *27:36 0.000514247
43 *26:44 *27:48 0.00023629
44 *26:44 *31:12 3.25797e-05
45 *26:44 *35:8 0.000141879
46 *26:55 *782:C 0.000106406
47 *26:55 *31:12 6.51997e-06
48 *26:59 *27:18 7.17698e-05
49 *26:73 *782:C 0.000116375
50 *26:73 *86:14 0.000154003
51 *26:113 *775:A 7.53384e-06
52 *26:113 *834:B1 7.76364e-06
53 *26:113 *51:14 0
54 *26:113 *57:10 2.73653e-05
55 *26:113 *88:33 0.000559115
56 *26:113 *97:28 7.03766e-05
57 *26:122 *27:122 0.000265472
58 *26:122 *97:20 6.53382e-05
59 *26:132 *795:B1 9.47879e-05
60 *26:132 *41:37 6.12227e-05
61 *26:132 *42:10 0.000382574
62 *26:132 *42:40 7.00653e-05
63 *26:132 *43:38 1.84917e-05
64 *26:132 *78:18 7.03766e-05
65 *26:132 *98:119 0
66 *21:8 *828:A1 0
67 *21:8 *26:34 5.05203e-05
*RES
1 *775:X *26:4 23 
2 *26:4 *26:8 3.37643 
3 *26:8 *26:18 38.0371 
4 *26:18 *26:22 15.6214 
5 *26:22 *26:34 49.7021 
6 *26:34 *26:44 29.355 
7 *26:44 *782:A 38.6214 
8 *26:44 *26:55 1.90571 
9 *26:55 *26:59 16.5743 
10 *26:59 *783:C 23 
11 *26:59 *796:C 26.48 
12 *26:55 *26:73 3.66643 
13 *26:73 *777:A_N 39.0979 
14 *26:73 *780:A 40.61 
15 *26:22 *828:A1 38.8493 
16 *26:8 *814:A1 23 
17 *26:4 *26:113 38.6379 
18 *26:113 *812:A 25.0507 
19 *26:113 *26:122 4.43286 
20 *26:122 *26:132 39.0107 
21 *26:132 *795:C1 23 
22 *26:122 *833:A 23 
*END

*D_NET *27 0.0132982
*CONN
*I *777:B I *D sky130_fd_sc_hd__and3b_1
*I *783:A_N I *D sky130_fd_sc_hd__and3b_1
*I *833:B I *D sky130_fd_sc_hd__or4b_1
*I *795:B1 I *D sky130_fd_sc_hd__a311o_1
*I *812:B I *D sky130_fd_sc_hd__nor2_1
*I *796:B I *D sky130_fd_sc_hd__and3b_1
*I *782:B I *D sky130_fd_sc_hd__and3_1
*I *778:B1 I *D sky130_fd_sc_hd__a21oi_1
*I *828:A2 I *D sky130_fd_sc_hd__o311a_1
*I *814:A2 I *D sky130_fd_sc_hd__o311a_1
*I *776:X O *D sky130_fd_sc_hd__buf_2
*CAP
1 *777:B 0.000243306
2 *783:A_N 0
3 *833:B 0.000143696
4 *795:B1 0.000418226
5 *812:B 0.000140527
6 *796:B 3.73824e-05
7 *782:B 0
8 *778:B1 5.35666e-05
9 *828:A2 0
10 *814:A2 0.000166836
11 *776:X 0.000153232
12 *27:122 0.000645622
13 *27:109 0.000968591
14 *27:86 0.00089047
15 *27:48 0.000574981
16 *27:36 0.000751464
17 *27:30 0.0005429
18 *27:18 0.000527966
19 *27:14 0.000357036
20 *27:8 0.000587479
21 *777:B *777:C 4.49581e-06
22 *778:B1 *778:A1 1.57571e-05
23 *778:B1 *778:A2 3.91386e-05
24 *778:B1 *779:A1 2.28308e-05
25 *778:B1 *779:B2 0.000116123
26 *778:B1 *85:36 2.64616e-05
27 *795:B1 *41:37 5.88461e-05
28 *795:B1 *42:10 0.000263759
29 *795:B1 *44:10 7.10099e-05
30 *795:B1 *80:8 8.62876e-05
31 *795:B1 *88:33 0
32 *795:B1 *98:26 6.37326e-05
33 *812:B *813:A1 0
34 *812:B *46:56 1.59094e-05
35 *812:B *51:8 9.67842e-05
36 *812:B *97:20 5.3304e-05
37 *814:A2 *828:C1 0.000108101
38 *814:A2 *37:14 2.50118e-05
39 *814:A2 *57:10 5.79559e-05
40 *814:A2 *71:24 9.82665e-05
41 *833:B *42:10 2.71291e-05
42 *833:B *97:20 0.000139357
43 *833:B *98:26 1.59312e-05
44 *27:18 *796:A_N 9.41704e-05
45 *27:18 *86:33 4.53082e-05
46 *27:30 *782:C 3.85863e-06
47 *27:30 *28:14 0.000248151
48 *27:30 *33:10 1.32314e-05
49 *27:36 *782:C 2.92911e-06
50 *27:36 *28:14 9.01353e-05
51 *27:36 *31:12 0.000299178
52 *27:36 *98:46 8.62876e-05
53 *27:48 *28:14 4.21594e-06
54 *27:86 *796:A_N 5.58003e-05
55 *27:109 *825:A1 0.000267288
56 *27:109 *825:A2 1.87619e-05
57 *27:109 *825:A3 0.000285234
58 *27:109 *834:B1 3.62854e-05
59 *27:109 *88:33 0.000212001
60 *27:109 *97:28 3.47781e-05
61 *27:109 *97:48 0.000166215
62 *27:109 *97:69 0.000220646
63 *27:109 *101:45 4.53082e-05
64 *27:122 *97:20 0.000308952
65 *777:A_N *777:B 3.46216e-05
66 *780:A *27:8 0
67 *796:C *27:18 4.67488e-05
68 *796:C *27:86 0.000115619
69 *812:A *812:B 0.000136743
70 *812:A *27:122 4.17736e-05
71 *21:8 *27:48 0
72 *26:18 *814:A2 0.000462344
73 *26:34 *27:48 0.000129582
74 *26:44 *27:36 0.000514247
75 *26:44 *27:48 0.00023629
76 *26:59 *27:18 7.17698e-05
77 *26:122 *27:122 0.000265472
78 *26:132 *795:B1 9.47879e-05
*RES
1 *776:X *27:8 40.9621 
2 *27:8 *27:14 18.1279 
3 *27:14 *27:18 3.50071 
4 *27:18 *27:30 35.4064 
5 *27:30 *27:36 23.5136 
6 *27:36 *27:48 24.135 
7 *27:48 *814:A2 30.0014 
8 *27:48 *828:A2 23 
9 *27:36 *778:B1 40.0921 
10 *27:30 *782:B 23 
11 *27:18 *27:86 2.52714 
12 *27:86 *796:B 23.8493 
13 *27:86 *27:109 47.69 
14 *27:109 *812:B 26.0243 
15 *27:109 *27:122 18.48 
16 *27:122 *795:B1 47.3629 
17 *27:122 *833:B 40.4236 
18 *27:14 *783:A_N 23 
19 *27:8 *777:B 41.0036 
*END

*D_NET *28 0.00564436
*CONN
*I *825:B2 I *D sky130_fd_sc_hd__o32a_1
*I *810:B2 I *D sky130_fd_sc_hd__o32a_1
*I *799:C1 I *D sky130_fd_sc_hd__a311o_1
*I *779:B1 I *D sky130_fd_sc_hd__o22a_1
*I *777:X O *D sky130_fd_sc_hd__and3b_1
*CAP
1 *825:B2 0.000165695
2 *810:B2 9.86266e-05
3 *799:C1 9.07146e-05
4 *779:B1 0
5 *777:X 0
6 *28:29 0.00032503
7 *28:23 0.0010531
8 *28:14 0.000544616
9 *28:4 0.00129633
10 *799:C1 *799:A1 2.93104e-06
11 *799:C1 *799:B1 8.07541e-05
12 *799:C1 *810:A1 1.32314e-05
13 *799:C1 *59:10 5.3304e-05
14 *810:B2 *810:A1 0.000111833
15 *825:B2 *59:10 3.41301e-05
16 *825:B2 *72:12 0.000105998
17 *825:B2 *100:29 0
18 *28:14 *785:B1 0
19 *28:14 *801:B2 7.80354e-05
20 *28:14 *811:A1 0
21 *28:14 *31:12 0.000706472
22 *28:14 *32:8 8.85189e-05
23 *28:14 *33:10 5.86165e-05
24 *28:14 *75:10 0
25 *28:14 *85:56 6.46414e-05
26 *28:14 *98:46 8.62876e-05
27 *28:23 *96:71 2.38992e-05
28 *28:29 *799:A1 0
29 *28:29 *59:10 0.000219082
30 *28:29 *100:29 0
31 *27:30 *28:14 0.000248151
32 *27:36 *28:14 9.01353e-05
33 *27:48 *28:14 4.21594e-06
*RES
1 *777:X *28:4 23 
2 *28:4 *28:14 44.2929 
3 *28:14 *779:B1 23 
4 *28:4 *28:23 23.7207 
5 *28:23 *28:29 18.4593 
6 *28:29 *799:C1 25.0714 
7 *28:29 *810:B2 25.0714 
8 *28:23 *825:B2 41.0036 
*END

*D_NET *29 0.000510423
*CONN
*I *779:B2 I *D sky130_fd_sc_hd__o22a_1
*I *778:Y O *D sky130_fd_sc_hd__a21oi_1
*CAP
1 *779:B2 0.000101207
2 *778:Y 0.000101207
3 *779:B2 *778:A2 9.58714e-05
4 *779:B2 *787:A2 0
5 *779:B2 *85:36 5.34425e-05
6 *779:B2 *98:46 4.2573e-05
7 *778:B1 *779:B2 0.000116123
*RES
1 *778:Y *779:B2 48.9 
*END

*D_NET *30 0.000263607
*CONN
*I *787:A1 I *D sky130_fd_sc_hd__o31a_1
*I *779:X O *D sky130_fd_sc_hd__o22a_1
*CAP
1 *787:A1 5.99763e-05
2 *779:X 5.99763e-05
3 *787:A1 *85:32 0.000143655
*RES
1 *779:X *787:A1 47.5743 
*END

*D_NET *31 0.00288341
*CONN
*I *856:A I *D sky130_fd_sc_hd__buf_1
*I *781:C I *D sky130_fd_sc_hd__and3_1
*I *780:Y O *D sky130_fd_sc_hd__nor3b_1
*CAP
1 *856:A 0.000200929
2 *781:C 0
3 *780:Y 0
4 *31:12 0.000486235
5 *31:6 0.000687165
6 *856:A *800:A3 0
7 *856:A *34:23 0
8 *856:A *86:10 9.63815e-05
9 *856:A *86:12 4.42688e-05
10 *856:A *86:77 5.50106e-05
11 *856:A *87:10 0
12 *856:A *99:14 0
13 *31:12 *782:C 0.000112361
14 *31:12 *34:23 0
15 *31:12 *85:62 1.18389e-05
16 *31:12 *86:12 4.08641e-05
17 *31:12 *86:14 0.000103605
18 *26:44 *31:12 3.25797e-05
19 *26:55 *31:12 6.51997e-06
20 *27:36 *31:12 0.000299178
21 *28:14 *31:12 0.000706472
*RES
1 *780:Y *31:6 38 
2 *31:6 *31:12 27.6979 
3 *31:12 *781:C 23 
4 *31:6 *856:A 42.64 
*END

*D_NET *32 0.000822499
*CONN
*I *787:A2 I *D sky130_fd_sc_hd__o31a_1
*I *781:X O *D sky130_fd_sc_hd__and3_1
*CAP
1 *787:A2 0.000217415
2 *781:X 3.55839e-05
3 *32:8 0.000252999
4 *787:A2 *85:32 0.000128401
5 *787:A2 *85:36 1.32939e-05
6 *32:8 *85:56 8.62876e-05
7 *779:B2 *787:A2 0
8 *28:14 *32:8 8.85189e-05
*RES
1 *781:X *32:8 39.2014 
2 *32:8 *787:A2 41.5007 
*END

*D_NET *33 0.00217952
*CONN
*I *811:B1 I *D sky130_fd_sc_hd__a32o_1
*I *801:A2 I *D sky130_fd_sc_hd__a221o_1
*I *785:A2 I *D sky130_fd_sc_hd__a22o_1
*I *782:X O *D sky130_fd_sc_hd__and3_1
*CAP
1 *811:B1 0
2 *801:A2 0
3 *785:A2 0
4 *782:X 0.000206888
5 *33:44 0.000240313
6 *33:23 0.000382825
7 *33:12 0.000142512
8 *33:10 0.000206888
9 *33:10 *785:B1 3.83778e-05
10 *33:10 *50:12 2.26385e-05
11 *33:23 *785:A1 0.000308919
12 *33:23 *801:B1 4.45902e-05
13 *33:23 *801:B2 0.00011272
14 *33:23 *813:A1 5.51027e-05
15 *33:23 *813:A2 3.31855e-06
16 *33:23 *36:10 1.39039e-05
17 *33:44 *801:B1 9.78475e-05
18 *33:44 *811:A1 1.28089e-05
19 *33:44 *811:B2 1.38396e-05
20 *33:44 *813:A1 6.70803e-05
21 *33:44 *75:10 4.76783e-05
22 *33:44 *94:58 3.93255e-06
23 *33:44 *100:10 4.2812e-06
24 *33:44 *100:29 8.12078e-05
25 *27:30 *33:10 1.32314e-05
26 *28:14 *33:10 5.86165e-05
*RES
1 *782:X *33:10 41.3557 
2 *33:10 *33:12 15 
3 *33:12 *785:A2 23 
4 *33:12 *33:23 4.97661 
5 *33:23 *801:A2 23 
6 *33:23 *33:44 34.9352 
7 *33:44 *811:B1 23 
*END

*D_NET *34 0.00847054
*CONN
*I *800:A3 I *D sky130_fd_sc_hd__o31a_1
*I *825:A3 I *D sky130_fd_sc_hd__o32a_1